<?xml version="1.0" encoding="ISO-8859-15" standalone="no"?><uc-export clientvers="11.0.0">
<JOBP AllowExternal="1" name="PCK.AUTOMIC_CLOUDFOUNDRY.PUB.ACTION.DELETE_ROUTE">
<XHEADER state="1">
<Title>Delete route from Clound Foundry</Title>
<ArchiveKey1/>
<ArchiveKey2/>
<Active>1</Active>
<OH_SubType/>
<CustomAttributes KeyListID="0" dataRequestID="0"/>
</XHEADER>
<SYNCREF state="1">
<Syncs/>
</SYNCREF>
<ATTR_JOBP state="1">
<Queue>CLIENT_QUEUE</Queue>
<ChildQueue/>
<StartType/>
<ExtRepDef>1</ExtRepDef>
<ExtRepAll>0</ExtRepAll>
<ExtRepNone>0</ExtRepNone>
<IntAccount/>
<AutoDeactNo>0</AutoDeactNo>
<AutoDeact1ErrorFree>0</AutoDeact1ErrorFree>
<AutoDeactErrorFree>1</AutoDeactErrorFree>
<DeactWhen>ANY_OK</DeactWhen>
<AutoDeactAlways>0</AutoDeactAlways>
<DeactDelay>0</DeactDelay>
<ActAtRun>1</ActAtRun>
<UC4Priority>0</UC4Priority>
<MaxParallel2>0</MaxParallel2>
<ReuseHG>1</ReuseHG>
<MpElse1>1</MpElse1>
<MpElse2>0</MpElse2>
<TZ/>
<RWhen/>
<RExecute/>
<JPA_SubType/>
</ATTR_JOBP>
<JOBP state="1">
<JobpStruct mode="design">
<task Alias="" BranchType="0" Col="1" Lnr="1" OType="&lt;START&gt;" Object="START" ParentAlias="" ParentObject="" Row="1" Text2="">
<checkpoint RollbackFlag="0" RunPerPatch="0" RunPerTarget="0" TcpADays="0" TcpATime="00:00" TcpATimeTZ="" TcpExecute="" TcpOn="0" promptatgen="0" showprompt="0"/>
<after ActFlg="1" AtimOn="0" ErlstStDays="0" ErlstStTime="00:00" ErlstStTimeTZ="" HoldFlg="0"/>
<when ChkWhenExec="0" LtstEnd="0" LtstEndDays="0" LtstEndTime="00:00" LtstSt="0" LtstStDays="0" LtstStTime="00:00" LtstTimeTZ="" WCTypeAND="1" WCTypeOR="0" WElseA="0" WElseH="0" WElseS="1" WElseX="0" WhenExecute="" WtimOn="0"/>
<preconditions>
<PreCon>
<conditions id="CONDITIONS"/>
</PreCon>
</preconditions>
<predecessors/>
<runtime MrtCancel="0" MrtDays="0" MrtErt="0" MrtExecute="0" MrtExecuteObj="" MrtFix="0" MrtMethodDate="0" MrtMethodErt="0" MrtMethodFix="0" MrtMethodNone="1" MrtOn="1" MrtTZ="" MrtTime="00:00" SrtErt="0" SrtFix="0" SrtMethodErt="0" SrtMethodFix="0" SrtMethodNone="1"/>
<result ChkRExec="0" RElseHalt="0" RElseIgn="0" RElseJPAbend="0" RExecFlag="0" RExecute="" RRepMTimes="0" RRepOn="0" RRepWait="0" RWhen=""/>
<dynvalues>
<dyntree>
<node content="1" id="PCK.AUTOMIC_CLOUDFOUNDRY.PUB.PROMPTSET.AUTHENTICATION_TOKEN" name="PCK.AUTOMIC_CLOUDFOUNDRY.PUB.PROMPTSET.AUTHENTICATION_TOKEN" parent="PPRPTS" type="PPROMPTSET">
<PROMPTSET name="PCK.AUTOMIC_CLOUDFOUNDRY.PUB.PROMPTSET.AUTHENTICATION_TOKEN">
<PRPTBOX promptset="PCK.AUTOMIC_CLOUDFOUNDRY.PUB.PROMPTSET.AUTHENTICATION_TOKEN">
<UC4RB_CF_AUTHTOKENs.00 ReadFromTable="OPUD" altview="1" haslist="0" msginsert="" msgnr="" promptname="UC4RB_CF_AUTHTOKEN#" promptsetname="PCK.AUTOMIC_CLOUDFOUNDRY.PUB.PROMPTSET.AUTHENTICATION_TOKEN">&amp;UC4RB_CF_AUTHTOKEN#</UC4RB_CF_AUTHTOKENs.00>
</PRPTBOX>
</PROMPTSET>
</node>
<node content="1" id="PCK.AUTOMIC_CLOUDFOUNDRY.PRV.PROMPTSET.DELETE_ROUTE" name="PCK.AUTOMIC_CLOUDFOUNDRY.PRV.PROMPTSET.DELETE_ROUTE" parent="PPRPTS" type="PPROMPTSET">
<PROMPTSET name="PCK.AUTOMIC_CLOUDFOUNDRY.PRV.PROMPTSET.DELETE_ROUTE">
<PRPTBOX promptset="PCK.AUTOMIC_CLOUDFOUNDRY.PRV.PROMPTSET.DELETE_ROUTE">
<UC4RB_CF_DOMAINs.00 ReadFromTable="OPSE" altview="0" haslist="0" msginsert="" msgnr="" promptname="UC4RB_CF_DOMAIN#" promptsetname="PCK.AUTOMIC_CLOUDFOUNDRY.PRV.PROMPTSET.DELETE_ROUTE"/>
<UC4RB_CF_HOSTNAMEs.00 ReadFromTable="OPSE" altview="0" haslist="0" msginsert="" msgnr="" promptname="UC4RB_CF_HOSTNAME#" promptsetname="PCK.AUTOMIC_CLOUDFOUNDRY.PRV.PROMPTSET.DELETE_ROUTE"/>
</PRPTBOX>
</PROMPTSET>
</node>
<node content="1" id="PCK.ITPA_SHARED.PRV.PROMPTSET.OVERWRITE_AGENT" name="PCK.ITPA_SHARED.PRV.PROMPTSET.OVERWRITE_AGENT" parent="PPRPTS" type="PPROMPTSET">
<PROMPTSET name="PCK.ITPA_SHARED.PRV.PROMPTSET.OVERWRITE_AGENT">
<PRPTBOX promptset="PCK.ITPA_SHARED.PRV.PROMPTSET.OVERWRITE_AGENT">
<AGENTs.00 ReadFromTable="OPUD" altview="1" haslist="0" msginsert="" msgnr="" promptname="AGENT#" promptsetname="PCK.ITPA_SHARED.PRV.PROMPTSET.OVERWRITE_AGENT">&amp;AGENT#</AGENTs.00>
<LOGINs.00 ReadFromTable="OPUD" altview="1" haslist="0" msginsert="" msgnr="" promptname="LOGIN#" promptsetname="PCK.ITPA_SHARED.PRV.PROMPTSET.OVERWRITE_AGENT">&amp;LOGIN#</LOGINs.00>
</PRPTBOX>
</PROMPTSET>
</node>
</dyntree>
</dynvalues>
<CIT/>
<calendars CCTypeAll="0" CCTypeExt="0" CCTypeNone="0" CCTypeOne="1" CaleOn="0"/>
<postconditions>
<PostCon>
<conditions id="CONDITIONS"/>
</PostCon>
</postconditions>
</task>
<task Alias="DELETE_ROUTE" BranchType="0" Col="2" Lnr="2" OType="JOBS" Object="PCK.AUTOMIC_CLOUDFOUNDRY.PRV.JOB.DELETE_ROUTE@GENERIC" ParentAlias="" ParentObject="" Row="1" Text2="">
<checkpoint RollbackFlag="1" RunPerPatch="0" RunPerTarget="0" TcpADays="0" TcpATime="00:00" TcpATimeTZ="" TcpExecute="" TcpOn="0" promptatgen="0" showprompt="0"/>
<after ActFlg="1" AtimOn="0" ErlstStDays="0" ErlstStTime="00:00" ErlstStTimeTZ="" HoldFlg="0"/>
<when ChkWhenExec="0" LtstEnd="0" LtstEndDays="0" LtstEndTime="00:00" LtstSt="0" LtstStDays="0" LtstStTime="00:00" LtstTimeTZ="" WCTypeAND="1" WCTypeOR="0" WElseA="1" WElseH="0" WElseS="0" WElseX="0" WhenExecute="" WtimOn="0"/>
<preconditions>
<PreCon>
<conditions id="CONDITIONS"/>
</PreCon>
</preconditions>
<predecessors>
<pre BranchType="0" Lnr="1" PreLnr="1" When="ANY_OK" type="container"/>
</predecessors>
<runtime MrtCancel="0" MrtDays="0" MrtErt="0" MrtExecute="0" MrtExecuteObj="" MrtFix="0" MrtMethodDate="0" MrtMethodErt="0" MrtMethodFix="0" MrtMethodNone="1" MrtOn="1" MrtTZ="" MrtTime="00:00" SrtErt="0" SrtFix="0" SrtMethodErt="0" SrtMethodFix="0" SrtMethodNone="1"/>
<result ChkRExec="0" RElseHalt="1" RElseIgn="0" RElseJPAbend="0" RExecFlag="0" RExecute="" RRepMTimes="0" RRepOn="0" RRepWait="0" RWhen=""/>
<dynvalues>
<dyntree>
<node content="1" id="VALUE" name="Variables" parent="" type="TASKVALUE">
<VALUE state="2">
<Values/>
<Mode>0</Mode>
</VALUE>
</node>
<node content="1" id="PVALUE" name="Parent Variables" parent="" type="TASKVALUE">
<VALUE state="2">
<Values/>
<Mode>0</Mode>
</VALUE>
</node>
<node content="1" id="PRPTS" name="PromptSets" parent="" pref="1" type="PROMPTSET"/>
<node content="0" id="PPRPTS" name="Parent PromptSets" parent="" type="PPROMPTSET"/>
<node content="1" id="PCK.AUTOMIC_CLOUDFOUNDRY.PUB.PROMPTSET.AUTHENTICATION_TOKEN" name="PCK.AUTOMIC_CLOUDFOUNDRY.PUB.PROMPTSET.AUTHENTICATION_TOKEN" parent="PPRPTS" type="PPROMPTSET">
<PROMPTSET name="PCK.AUTOMIC_CLOUDFOUNDRY.PUB.PROMPTSET.AUTHENTICATION_TOKEN">
<PRPTBOX promptset="PCK.AUTOMIC_CLOUDFOUNDRY.PUB.PROMPTSET.AUTHENTICATION_TOKEN">
<UC4RB_CF_AUTHTOKENs.00 ReadFromTable="OPUD" altview="1" haslist="0" msginsert="" msgnr="" promptname="UC4RB_CF_AUTHTOKEN#" promptsetname="PCK.AUTOMIC_CLOUDFOUNDRY.PUB.PROMPTSET.AUTHENTICATION_TOKEN">&amp;UC4RB_CF_AUTHTOKEN#</UC4RB_CF_AUTHTOKENs.00>
</PRPTBOX>
</PROMPTSET>
</node>
<node content="1" id="PCK.AUTOMIC_CLOUDFOUNDRY.PRV.PROMPTSET.DELETE_ROUTE" name="PCK.AUTOMIC_CLOUDFOUNDRY.PRV.PROMPTSET.DELETE_ROUTE" parent="PPRPTS" type="PPROMPTSET">
<PROMPTSET name="PCK.AUTOMIC_CLOUDFOUNDRY.PRV.PROMPTSET.DELETE_ROUTE">
<PRPTBOX promptset="PCK.AUTOMIC_CLOUDFOUNDRY.PRV.PROMPTSET.DELETE_ROUTE">
<UC4RB_CF_DOMAINs.00 ReadFromTable="OPSE" altview="0" haslist="0" msginsert="" msgnr="" promptname="UC4RB_CF_DOMAIN#" promptsetname="PCK.AUTOMIC_CLOUDFOUNDRY.PRV.PROMPTSET.DELETE_ROUTE"/>
<UC4RB_CF_HOSTNAMEs.00 ReadFromTable="OPSE" altview="0" haslist="0" msginsert="" msgnr="" promptname="UC4RB_CF_HOSTNAME#" promptsetname="PCK.AUTOMIC_CLOUDFOUNDRY.PRV.PROMPTSET.DELETE_ROUTE"/>
</PRPTBOX>
</PROMPTSET>
</node>
<node content="1" id="PCK.ITPA_SHARED.PRV.PROMPTSET.OVERWRITE_AGENT" name="PCK.ITPA_SHARED.PRV.PROMPTSET.OVERWRITE_AGENT" parent="PPRPTS" type="PPROMPTSET">
<PROMPTSET name="PCK.ITPA_SHARED.PRV.PROMPTSET.OVERWRITE_AGENT">
<PRPTBOX promptset="PCK.ITPA_SHARED.PRV.PROMPTSET.OVERWRITE_AGENT">
<AGENTs.00 ReadFromTable="OPUD" altview="1" haslist="0" msginsert="" msgnr="" promptname="AGENT#" promptsetname="PCK.ITPA_SHARED.PRV.PROMPTSET.OVERWRITE_AGENT">&amp;AGENT#</AGENTs.00>
<LOGINs.00 ReadFromTable="OPUD" altview="1" haslist="0" msginsert="" msgnr="" promptname="LOGIN#" promptsetname="PCK.ITPA_SHARED.PRV.PROMPTSET.OVERWRITE_AGENT">&amp;LOGIN#</LOGINs.00>
</PRPTBOX>
</PROMPTSET>
</node>
</dyntree>
</dynvalues>
<CIT/>
<calendars CCTypeAll="0" CCTypeExt="0" CCTypeNone="0" CCTypeOne="1" CaleOn="0"/>
<postconditions>
<PostCon>
<conditions id="CONDITIONS">
<action active="1" id="EXECUTE OBJECT" once="0" type="A" uiinfo="">
<params>
<param altview="0" name="XC_P01" type="V" value="PCK.AUTOMIC_FILESYSTEM.PUB.ACTION.DELETE"/>
<param altview="0" name="XC_P02" type="S" value="#915032:getobjprompt:0:3"/>
<param altview="0" name="XC_P03" type="V" value="##911010">
<param name="AGENTs.00" value="&amp;AGENT#" vname="XC_P03"/>
<param name="LOGINs.00" value="&amp;LOGIN#" vname="XC_P03"/>
<param name="UC4RB_DIR_FILE_RM_FAILs.00" value="NO" vname="XC_P03"/>
<param name="UC4RB_DIR_FILE_RM_NAMEs.00" value="&amp;UC4RB_CF_HOMEDIR#" vname="XC_P03"/>
</param>
<param altview="0" name="XC_P04" type="V" value="DEL_DIR"/>
</params>
</action>
</conditions>
</PostCon>
</postconditions>
</task>
<task Alias="" BranchType="0" Col="3" Lnr="3" OType="&lt;END&gt;" Object="END" ParentAlias="" ParentObject="" Row="1" Text2="">
<checkpoint RollbackFlag="0" RunPerPatch="0" RunPerTarget="0" TcpADays="0" TcpATime="00:00" TcpATimeTZ="" TcpExecute="" TcpOn="0" promptatgen="0" showprompt="0"/>
<after ActFlg="1" AtimOn="0" ErlstStDays="0" ErlstStTime="00:00" ErlstStTimeTZ="" HoldFlg="0"/>
<when ChkWhenExec="0" LtstEnd="0" LtstEndDays="0" LtstEndTime="00:00" LtstSt="0" LtstStDays="0" LtstStTime="00:00" LtstTimeTZ="" WCTypeAND="1" WCTypeOR="0" WElseA="1" WElseH="0" WElseS="0" WElseX="0" WhenExecute="" WtimOn="0"/>
<preconditions>
<PreCon>
<conditions id="CONDITIONS"/>
</PreCon>
</preconditions>
<predecessors>
<pre BranchType="0" Lnr="1" PreLnr="2" When="ANY_OK" type="container"/>
</predecessors>
<runtime MrtCancel="0" MrtDays="0" MrtErt="0" MrtExecute="0" MrtExecuteObj="" MrtFix="0" MrtMethodDate="0" MrtMethodErt="0" MrtMethodFix="0" MrtMethodNone="1" MrtOn="1" MrtTZ="" MrtTime="00:00" SrtErt="0" SrtFix="0" SrtMethodErt="0" SrtMethodFix="0" SrtMethodNone="1"/>
<result ChkRExec="0" RElseHalt="0" RElseIgn="0" RElseJPAbend="0" RExecFlag="0" RExecute="" RRepMTimes="0" RRepOn="0" RRepWait="0" RWhen=""/>
<dynvalues>
<dyntree>
<node content="1" id="PCK.AUTOMIC_CLOUDFOUNDRY.PUB.PROMPTSET.AUTHENTICATION_TOKEN" name="PCK.AUTOMIC_CLOUDFOUNDRY.PUB.PROMPTSET.AUTHENTICATION_TOKEN" parent="PPRPTS" type="PPROMPTSET">
<PROMPTSET name="PCK.AUTOMIC_CLOUDFOUNDRY.PUB.PROMPTSET.AUTHENTICATION_TOKEN">
<PRPTBOX promptset="PCK.AUTOMIC_CLOUDFOUNDRY.PUB.PROMPTSET.AUTHENTICATION_TOKEN">
<UC4RB_CF_AUTHTOKENs.00 ReadFromTable="OPUD" altview="1" haslist="0" msginsert="" msgnr="" promptname="UC4RB_CF_AUTHTOKEN#" promptsetname="PCK.AUTOMIC_CLOUDFOUNDRY.PUB.PROMPTSET.AUTHENTICATION_TOKEN">&amp;UC4RB_CF_AUTHTOKEN#</UC4RB_CF_AUTHTOKENs.00>
</PRPTBOX>
</PROMPTSET>
</node>
<node content="1" id="PCK.AUTOMIC_CLOUDFOUNDRY.PRV.PROMPTSET.DELETE_ROUTE" name="PCK.AUTOMIC_CLOUDFOUNDRY.PRV.PROMPTSET.DELETE_ROUTE" parent="PPRPTS" type="PPROMPTSET">
<PROMPTSET name="PCK.AUTOMIC_CLOUDFOUNDRY.PRV.PROMPTSET.DELETE_ROUTE">
<PRPTBOX promptset="PCK.AUTOMIC_CLOUDFOUNDRY.PRV.PROMPTSET.DELETE_ROUTE">
<UC4RB_CF_DOMAINs.00 ReadFromTable="OPSE" altview="0" haslist="0" msginsert="" msgnr="" promptname="UC4RB_CF_DOMAIN#" promptsetname="PCK.AUTOMIC_CLOUDFOUNDRY.PRV.PROMPTSET.DELETE_ROUTE"/>
<UC4RB_CF_HOSTNAMEs.00 ReadFromTable="OPSE" altview="0" haslist="0" msginsert="" msgnr="" promptname="UC4RB_CF_HOSTNAME#" promptsetname="PCK.AUTOMIC_CLOUDFOUNDRY.PRV.PROMPTSET.DELETE_ROUTE"/>
</PRPTBOX>
</PROMPTSET>
</node>
<node content="1" id="PCK.ITPA_SHARED.PRV.PROMPTSET.OVERWRITE_AGENT" name="PCK.ITPA_SHARED.PRV.PROMPTSET.OVERWRITE_AGENT" parent="PPRPTS" type="PPROMPTSET">
<PROMPTSET name="PCK.ITPA_SHARED.PRV.PROMPTSET.OVERWRITE_AGENT">
<PRPTBOX promptset="PCK.ITPA_SHARED.PRV.PROMPTSET.OVERWRITE_AGENT">
<AGENTs.00 ReadFromTable="OPUD" altview="1" haslist="0" msginsert="" msgnr="" promptname="AGENT#" promptsetname="PCK.ITPA_SHARED.PRV.PROMPTSET.OVERWRITE_AGENT">&amp;AGENT#</AGENTs.00>
<LOGINs.00 ReadFromTable="OPUD" altview="1" haslist="0" msginsert="" msgnr="" promptname="LOGIN#" promptsetname="PCK.ITPA_SHARED.PRV.PROMPTSET.OVERWRITE_AGENT">&amp;LOGIN#</LOGINs.00>
</PRPTBOX>
</PROMPTSET>
</node>
</dyntree>
</dynvalues>
<CIT/>
<calendars CCTypeAll="0" CCTypeExt="0" CCTypeNone="0" CCTypeOne="1" CaleOn="0"/>
<postconditions>
<PostCon>
<conditions id="CONDITIONS"/>
</PostCon>
</postconditions>
</task>
<OPTIONS/>
</JobpStruct>
</JOBP>
<RUNTIME state="1">
<MaxRetCode>0</MaxRetCode>
<MrcExecute/>
<MrcElseE>0</MrcElseE>
<FcstStatus>0| |</FcstStatus>

<ErtMethodDef>1</ErtMethodDef>
<ErtMethodFix>0</ErtMethodFix>
<ErtFix>0</ErtFix>
<ErtDynMethod>2|Average</ErtDynMethod>
<ErtMethodDyn>0</ErtMethodDyn>
<ErtCnt>0</ErtCnt>
<ErtCorr>0</ErtCorr>
<ErtIgn>0</ErtIgn>
<ErtIgnFlg>0</ErtIgnFlg>
<ErtMinCnt>0</ErtMinCnt>
<MrtMethodNone>1</MrtMethodNone>
<MrtMethodFix>0</MrtMethodFix>
<MrtFix>0</MrtFix>
<MrtMethodErt>0</MrtMethodErt>
<MrtErt>0</MrtErt>
<MrtMethodDate>0</MrtMethodDate>
<MrtDays>0</MrtDays>
<MrtTime>00:00</MrtTime>
<MrtTZ/>
<SrtMethodNone>1</SrtMethodNone>
<SrtMethodFix>0</SrtMethodFix>
<SrtFix>0</SrtFix>
<SrtMethodErt>0</SrtMethodErt>
<SrtErt>0</SrtErt>
<MrtCancel>0</MrtCancel>
<MrtExecute>0</MrtExecute>
<MrtExecuteObj/>
</RUNTIME>
<DYNVALUES state="1">
<dyntree>
<node content="1" id="VALUE" name="Variables" parent="" type="VALUE">
<VALUE state="1">
<Values/>
<Mode>0</Mode>
</VALUE>
</node>
<node content="1" id="PCK.AUTOMIC_CLOUDFOUNDRY.PUB.PROMPTSET.AUTHENTICATION_TOKEN" name="PCK.AUTOMIC_CLOUDFOUNDRY.PUB.PROMPTSET.AUTHENTICATION_TOKEN" parent="PRPTS" type="PROMPTSET">
<PROMPTSET name="PCK.AUTOMIC_CLOUDFOUNDRY.PUB.PROMPTSET.AUTHENTICATION_TOKEN" ontop="1">
<PRPTBOX promptset="PCK.AUTOMIC_CLOUDFOUNDRY.PUB.PROMPTSET.AUTHENTICATION_TOKEN" prptmode="1">
<UC4RB_CF_AUTHTOKENs.00 altview="1" haslist="0">&amp;UC4RB_CF_AUTHTOKEN#</UC4RB_CF_AUTHTOKENs.00>
</PRPTBOX>
</PROMPTSET>
</node>
<node content="1" id="PCK.AUTOMIC_CLOUDFOUNDRY.PRV.PROMPTSET.DELETE_ROUTE" name="PCK.AUTOMIC_CLOUDFOUNDRY.PRV.PROMPTSET.DELETE_ROUTE" parent="PRPTS" type="PROMPTSET">
<PROMPTSET name="PCK.AUTOMIC_CLOUDFOUNDRY.PRV.PROMPTSET.DELETE_ROUTE" ontop="1">
<PRPTBOX promptset="PCK.AUTOMIC_CLOUDFOUNDRY.PRV.PROMPTSET.DELETE_ROUTE" prptmode="1"/>
</PROMPTSET>
</node>
<node content="1" id="PCK.ITPA_SHARED.PRV.PROMPTSET.OVERWRITE_AGENT" name="PCK.ITPA_SHARED.PRV.PROMPTSET.OVERWRITE_AGENT" parent="PRPTS" type="PROMPTSET">
<PROMPTSET name="PCK.ITPA_SHARED.PRV.PROMPTSET.OVERWRITE_AGENT" ontop="1">
<PRPTBOX promptset="PCK.ITPA_SHARED.PRV.PROMPTSET.OVERWRITE_AGENT" prptmode="1">
<AGENTs.00 altview="1" haslist="0">&amp;AGENT#</AGENTs.00>
<LOGINs.00 altview="1" haslist="0">&amp;LOGIN#</LOGINs.00>
</PRPTBOX>
</PROMPTSET>
</node>
</dyntree>
</DYNVALUES>
<DEPLOYMENT state="1">
<DeploymentFlag>0</DeploymentFlag>
<WFTypeA>1</WFTypeA>
<WFTypeC>0</WFTypeC>
<AppName/>
<WFName/>
<ComponentName/>
</DEPLOYMENT>
<ROLLBACK state="1">
<RollbackFlag>0</RollbackFlag>
<CBackupObj/>
<CRollbackObj/>
<FBackupPath/>
<FDeleteBefore>0</FDeleteBefore>
<FInclSubDirs>0</FInclSubDirs>
</ROLLBACK>
<SCRIPT mode="1" state="1">
<MSCRI/>
</SCRIPT>
<DOCU_Docu state="1" type="text">
<DOC><![CDATA[= Action name =
PCK.AUTOMIC_CLOUDFOUNDRY.PUB.ACTION.DELETE_ROUTE

= General description =
This action is used to delete the specified route from Cloud Foundry for the user whose authentication token is provided. This action will delete the route across the Cloud Foundry, irrespective of the target organization and space. If the user tries to delete a non-existing route for an existing domain, the action will not fail.
* First, it transfers the authentication information to a temporary directory('using runid' of the task) created inside agent OS temp directory. If the Authentication token is valid we call the delete-route action to delete the route.
* Upon successful response of the above command, it updates the authentication information in the VARA "PCK.AUTOMIC_CLOUDFOUNDRY.PRV.VARA.AUTHINFO".
* Finally, it removes the temporary directory from the agent OS using post conditions.

* We call the delete-route command with -f to force delete without confirmation prompt.

= Failure Conditions =
* If the specified authentication token is invalid.
* If non-existing domain name is provided, the action will fail.

= Inputs =
* Authentication Token 	: Specify authentication token which was created after login. Example 0001241035
* Domain 		: Specify domain name to delete. It is case insensitive. Eg. automic.com
* Hostname 		: Specify hostname (subdomain) to delete. It is case insensitive. Eg. mywebapp
* Overwrite Agent 	: Overwrites the default agent
* Overwrite Login 	: Overwrites the default login

= Behaviour =
(none)

=Return Value=
(none)

= Outputs =
* Return code is 0 in case of success.
* Return code is non zero in case of failure.

= Logging =
Logs will be displayed in the AE report.

= Example =
(none)]]></DOC>
</DOCU_Docu>
</JOBP>
</uc-export>